[TITLE]
Multi-Junction Network Example
10 junctions, 12 pipes, 1 reservoir
Demonstrates time-varying demands and demand forecasting

[JUNCTIONS]
;ID              Elev        Demand      Pattern         
 J1              100         50          PAT1            
 J2              105         75          PAT2            
 J3              110         60          PAT1            
 J4              108         80          PAT3            
 J5              112         45          PAT2            
 J6              115         90          PAT1            
 J7              118         55          PAT3            
 J8              120         70          PAT2            
 J9              122         65          PAT1            
 J10             125         85          PAT3            

[RESERVOIRS]
;ID              Head        Pattern         
 R1              150                         

[PIPES]
;ID              Node1           Node2           Length      Diameter    Roughness   MinorLoss   Status
 P1              R1              J1              1000        12          100         0           Open
 P2              J1              J2              800         10          100         0           Open
 P3              J1              J3              900         10          100         0           Open
 P4              J2              J4              700         8           100         0           Open
 P5              J3              J5              750         8           100         0           Open
 P6              J4              J6              650         8           100         0           Open
 P7              J5              J7              700         8           100         0           Open
 P8              J6              J8              600         6           100         0           Open
 P9              J7              J9              650         6           100         0           Open
 P10             J8              J10             700         6           100         0           Open
 P11             J9              J10             500         6           100         0           Open
 P12             J4              J5              600         8           100         0           Open

[PATTERNS]
;ID              Multipliers
;Residential demand pattern (morning/evening peaks)
 PAT1            0.5  0.4  0.4  0.5  0.8  1.2
 PAT1            1.5  1.3  1.1  1.0  1.0  1.1
 PAT1            1.3  1.5  1.4  1.2  0.9  0.7
 PAT1            0.6  0.5  0.5  0.5  0.5  0.5

;Commercial demand pattern (daytime peak)
 PAT2            0.3  0.3  0.3  0.4  0.6  0.9
 PAT2            1.2  1.4  1.5  1.5  1.4  1.3
 PAT2            1.2  1.1  1.0  0.8  0.6  0.4
 PAT2            0.3  0.3  0.3  0.3  0.3  0.3

;Industrial demand pattern (constant with shift changes)
 PAT3            0.8  0.8  0.8  0.8  0.8  0.9
 PAT3            1.2  1.2  1.2  1.2  1.2  1.2
 PAT3            1.2  1.2  1.2  1.2  1.2  0.9
 PAT3            0.8  0.8  0.8  0.8  0.8  0.8

[OPTIONS]
 Units                  GPM
 Headloss               H-W
 Specific Gravity       1.0
 Viscosity              1.0
 Trials                 40
 Accuracy               0.001
 Unbalanced             Continue 10
 Pattern                1
 Demand Multiplier      1.0
 Emitter Exponent       0.5
 Quality                None mg/L
 Diffusivity            1.0
 Tolerance              0.01

[TIMES]
 Duration               24:00
 Hydraulic Timestep     1:00
 Quality Timestep       0:05
 Pattern Timestep       1:00
 Pattern Start          0:00
 Report Timestep        1:00
 Report Start           0:00
 Start ClockTime        12 am
 Statistic              None

[REPORT]
 Status                 Yes
 Summary                No
 Page                   0

[COORDINATES]
;Node            X-Coord         Y-Coord
 J1              1000            5000
 J2              2000            5500
 J3              2000            4500
 J4              3000            5500
 J5              3000            4500
 J6              4000            5500
 J7              4000            4500
 J8              5000            5500
 J9              5000            4500
 J10             6000            5000
 R1              0               5000

[END]
