[TITLE]
EPANET Tutorial Network (Net1)
Simple 2-loop network with 1 reservoir, 1 tank, 2 pumps, 9 junctions, 12 pipes

[JUNCTIONS]
;ID              Elev        Demand      Pattern         
 10              710         0           1               
 11              710         150         1               
 12              700         150         1               
 13              695         100         1               
 21              700         150         1               
 22              695         200         1               
 23              690         150         1               
 31              700         100         1               
 32              710         100         1               

[RESERVOIRS]
;ID              Head        Pattern         
 9               800                         

[TANKS]
;ID              Elevation   InitLevel   MinLevel    MaxLevel    Diameter    MinVol      VolCurve
 2               850         120         100         150         50.5        0                   

[PIPES]
;ID              Node1           Node2           Length      Diameter    Roughness   MinorLoss   Status
 10              10              11              10530       14          100         0           Open
 11              11              12              5280        10          100         0           Open
 12              12              13              5280        10          100         0           Open
 21              21              22              5280        10          100         0           Open
 22              22              23              5280        12          100         0           Open
 31              31              32              5280        6           100         0           Open
 110             2               12              200         18          100         0           Open
 111             11              21              5280        10          100         0           Open
 112             12              22              5280        12          100         0           Open
 113             13              23              5280        8           100         0           Open
 121             21              31              5280        8           100         0           Open
 122             22              32              5280        6           100         0           Open

[PUMPS]
;ID              Node1           Node2           Parameters
 PMP9            9               10              HEAD 1
 PMP10           32              2               HEAD 2

[VALVES]
;ID              Node1           Node2           Diameter    Type    Setting     MinorLoss   

[TAGS]

[DEMANDS]
;Junction        Demand      Pattern         Category

[STATUS]
;ID              Status/Setting

[PATTERNS]
;ID              Multipliers
;Typical diurnal pattern
 1               1.0  1.2  1.4  1.6  1.4  1.2
 1               1.0  0.8  0.6  0.4  0.6  0.8

[CURVES]
;ID              X-Value     Y-Value
;PUMP: Pump Curve for PMP9
 1               1500        250

;PUMP: Pump Curve for PMP10  
 2               200         100

[CONTROLS]

[RULES]

[ENERGY]
 Global Efficiency  75
 Global Price       0.0
 Demand Charge      0.0

[EMITTERS]
;Junction        Coefficient

[QUALITY]
;Node            InitQual

[SOURCES]
;Node            Type        Quality     Pattern

[REACTIONS]
;Type     Pipe/Tank       Coefficient

 Order Bulk            1
 Order Tank            1
 Order Wall            1
 Global Bulk           0.0
 Global Wall           0.0
 Limiting Potential    0.0
 Roughness Correlation 0.0

[MIXING]
;Tank            Model

[TIMES]
 Duration           24:00 
 Hydraulic Timestep 1:00 
 Quality Timestep   0:05 
 Pattern Timestep   2:00 
 Pattern Start      0:00 
 Report Timestep    1:00 
 Report Start       0:00 
 Start ClockTime    12 am
 Statistic          None

[REPORT]
 Status             Yes
 Summary            Yes
 Page               0
 Nodes              All
 Links              All

[OPTIONS]
 Units              GPM
 Headloss           H-W
 Specific Gravity   1.0
 Viscosity          1.0
 Trials             40
 Accuracy           0.001
 CHECKFREQ          2
 MAXCHECK           10
 DAMPLIMIT          0
 Unbalanced         Continue 10
 Pattern            1
 Demand Multiplier  1.0
 Emitter Exponent   0.5
 Quality            None mg/L
 Diffusivity        1.0
 Tolerance          0.01

[COORDINATES]
;Node            X-Coord         Y-Coord
 10              20.00           70.00           
 11              30.00           70.00           
 12              50.00           70.00           
 13              70.00           70.00           
 21              30.00           40.00           
 22              50.00           40.00           
 23              70.00           40.00           
 31              30.00           10.00           
 32              50.00           10.00           
 9               10.00           70.00           
 2               50.00           90.00           

[VERTICES]
;Link            X-Coord         Y-Coord

[LABELS]
;X-Coord           Y-Coord          Label & Anchor Node

[BACKDROP]
 DIMENSIONS     7.00            6.00            73.00           94.00           
 UNITS          None
 FILE           
 OFFSET         0.00            0.00            

[END]
