[TITLE]
Simple Test Network for Value Accessor Tests

[JUNCTIONS]
;ID              Elev        Demand      Pattern         
 J1              100         100         1               
 J2              100         50          1               
 J3              100         75          1               

[RESERVOIRS]
;ID              Head        Pattern         
 R1              150                         

[TANKS]
;ID              Elevation   InitLevel   MinLevel    MaxLevel    Diameter    MinVol      VolCurve
 T1              200         10          5           20          50          0                   

[PIPES]
;ID              Node1           Node2           Length      Diameter    Roughness   MinorLoss   Status
 P1              R1              J1              1000        12          100         0           Open
 P2              J1              J2              1000        10          100         0           Open
 P3              J2              J3              1000        8           100         0           Open
 P4              J3              T1              1000        10          100         0           Open

[PUMPS]
;ID              Node1           Node2           Parameters
 PUMP1           J1              T1              HEAD 1

[VALVES]
;ID              Node1           Node2           Diameter    Type    Setting     MinorLoss   

[TAGS]

[DEMANDS]
;Junction        Demand      Pattern         Category

[STATUS]
;ID              Status/Setting

[PATTERNS]
;ID              Multipliers
 1               1.0 1.2 1.4 1.2 1.0 0.8 0.6 0.8

[CURVES]
;ID              X-Value     Y-Value
;PUMP: Pump Curve for PUMP1
 1               0           150
 1               100         140
 1               200         120

[CONTROLS]

[RULES]

[ENERGY]
 Global Efficiency  75
 Global Price       0.0
 Demand Charge      0.0

[EMITTERS]
;Junction        Coefficient

[QUALITY]
;Node            InitQual

[SOURCES]
;Node            Type        Quality     Pattern

[REACTIONS]
;Type     Pipe/Tank       Coefficient

 Order Bulk            1
 Order Tank            1
 Order Wall            1
 Global Bulk           0.0
 Global Wall           0.0
 Limiting Potential    0.0
 Roughness Correlation 0.0

[MIXING]
;Tank            Model

[TIMES]
 Duration           24:00 
 Hydraulic Timestep 1:00 
 Quality Timestep   0:05 
 Pattern Timestep   1:00 
 Pattern Start      0:00 
 Report Timestep    1:00 
 Report Start       0:00 
 Start ClockTime    12 am
 Statistic          None

[REPORT]
 Status             No
 Summary            No
 Page               0

[OPTIONS]
 Units              GPM
 Headloss           H-W
 Specific Gravity   1.0
 Viscosity          1.0
 Trials             40
 Accuracy           0.001
 CHECKFREQ          2
 MAXCHECK           10
 DAMPLIMIT          0
 Unbalanced         Continue 10
 Pattern            1
 Demand Multiplier  1.0
 Emitter Exponent   0.5
 Quality            None mg/L
 Diffusivity        1.0
 Tolerance          0.01

[COORDINATES]
;Node            X-Coord         Y-Coord
 J1              1000            5000            
 J2              2000            5000            
 J3              3000            5000            
 R1              0               5000            
 T1              4000            5000            

[VERTICES]
;Link            X-Coord         Y-Coord

[LABELS]
;X-Coord           Y-Coord          Label & Anchor Node

[BACKDROP]
 DIMENSIONS     0.00            0.00            10000.00        10000.00        
 UNITS          None
 FILE           
 OFFSET         0.00            0.00            

[END]
